!-Generator IDFEditor 1.44
!-Option SortedOrder

!-NOTE: All comments with '!-' are ignored by the IDFEditor and are generated automatically.
!-      Use '!' comments if they need to be retained when using the IDFEditor.


!-   ===========  ALL OBJECTS IN CLASS: WINDOWMATERIAL:GLAZING ===========

!Honeybee custom EnergyPlus library
WindowMaterial:Glazing,
    CLEAR 2.5MM,             !- Name
    SpectralAverage,         !- Optical Data Type
    ,                        !- Window Glass Spectral Data Set Name
    0.0025,                  !- Thickness {m}
    0.850,                   !- Solar Transmittance at Normal Incidence
    0.075,                   !- Front Side Solar Reflectance at Normal Incidence
    0.075,                   !- Back Side Solar Reflectance at Normal Incidence
    0.901,                   !- Visible Transmittance at Normal Incidence
    0.081,                   !- Front Side Visible Reflectance at Normal Incidence
    0.081,                   !- Back Side Visible Reflectance at Normal Incidence
    0.0,                     !- Infrared Transmittance at Normal Incidence
    0.84,                    !- Front Side Infrared Hemispherical Emissivity
    0.84,                    !- Back Side Infrared Hemispherical Emissivity
    0.9;                     !- Conductivity {W/m-K}

WindowMaterial:Glazing,
    CLEAR 3MM,               !- Name
    SpectralAverage,         !- Optical Data Type
    ,                        !- Window Glass Spectral Data Set Name
    0.003,                   !- Thickness {m}
    0.837,                   !- Solar Transmittance at Normal Incidence
    0.075,                   !- Front Side Solar Reflectance at Normal Incidence
    0.075,                   !- Back Side Solar Reflectance at Normal Incidence
    0.898,                   !- Visible Transmittance at Normal Incidence
    0.081,                   !- Front Side Visible Reflectance at Normal Incidence
    0.081,                   !- Back Side Visible Reflectance at Normal Incidence
    0.0,                     !- Infrared Transmittance at Normal Incidence
    0.84,                    !- Front Side Infrared Hemispherical Emissivity
    0.84,                    !- Back Side Infrared Hemispherical Emissivity
    0.9;                     !- Conductivity {W/m-K}

WindowMaterial:Glazing,
    CLEAR 6MM,               !- Name
    SpectralAverage,         !- Optical Data Type
    ,                        !- Window Glass Spectral Data Set Name
    0.006,                   !- Thickness {m}
    0.775,                   !- Solar Transmittance at Normal Incidence
    0.071,                   !- Front Side Solar Reflectance at Normal Incidence
    0.071,                   !- Back Side Solar Reflectance at Normal Incidence
    0.881,                   !- Visible Transmittance at Normal Incidence
    0.080,                   !- Front Side Visible Reflectance at Normal Incidence
    0.080,                   !- Back Side Visible Reflectance at Normal Incidence
    0.0,                     !- Infrared Transmittance at Normal Incidence
    0.84,                    !- Front Side Infrared Hemispherical Emissivity
    0.84,                    !- Back Side Infrared Hemispherical Emissivity
    0.9;                     !- Conductivity {W/m-K}

WindowMaterial:Glazing,
    CLEAR 12MM,              !- Name
    SpectralAverage,         !- Optical Data Type
    ,                        !- Window Glass Spectral Data Set Name
    0.012,                   !- Thickness {m}
    0.653,                   !- Solar Transmittance at Normal Incidence
    0.064,                   !- Front Side Solar Reflectance at Normal Incidence
    0.064,                   !- Back Side Solar Reflectance at Normal Incidence
    0.841,                   !- Visible Transmittance at Normal Incidence
    0.077,                   !- Front Side Visible Reflectance at Normal Incidence
    0.077,                   !- Back Side Visible Reflectance at Normal Incidence
    0.0,                     !- Infrared Transmittance at Normal Incidence
    0.84,                    !- Front Side Infrared Hemispherical Emissivity
    0.84,                    !- Back Side Infrared Hemispherical Emissivity
    0.9;                     !- Conductivity {W/m-K}

WindowMaterial:Glazing,
    BRONZE 3MM,              !- Name
    SpectralAverage,         !- Optical Data Type
    ,                        !- Window Glass Spectral Data Set Name
    0.003,                   !- Thickness {m}
    0.645,                   !- Solar Transmittance at Normal Incidence
    0.062,                   !- Front Side Solar Reflectance at Normal Incidence
    0.062,                   !- Back Side Solar Reflectance at Normal Incidence
    0.685,                   !- Visible Transmittance at Normal Incidence
    0.065,                   !- Front Side Visible Reflectance at Normal Incidence
    0.065,                   !- Back Side Visible Reflectance at Normal Incidence
    0.0,                     !- Infrared Transmittance at Normal Incidence
    0.84,                    !- Front Side Infrared Hemispherical Emissivity
    0.84,                    !- Back Side Infrared Hemispherical Emissivity
    0.9;                     !- Conductivity {W/m-K}

WindowMaterial:Glazing,
    BRONZE 6MM,              !- Name
    SpectralAverage,         !- Optical Data Type
    ,                        !- Window Glass Spectral Data Set Name
    0.006,                   !- Thickness {m}
    0.482,                   !- Solar Transmittance at Normal Incidence
    0.054,                   !- Front Side Solar Reflectance at Normal Incidence
    0.054,                   !- Back Side Solar Reflectance at Normal Incidence
    0.534,                   !- Visible Transmittance at Normal Incidence
    0.057,                   !- Front Side Visible Reflectance at Normal Incidence
    0.057,                   !- Back Side Visible Reflectance at Normal Incidence
    0.0,                     !- Infrared Transmittance at Normal Incidence
    0.84,                    !- Front Side Infrared Hemispherical Emissivity
    0.84,                    !- Back Side Infrared Hemispherical Emissivity
    0.9;                     !- Conductivity {W/m-K}

WindowMaterial:Glazing,
    BRONZE 10MM,             !- Name
    SpectralAverage,         !- Optical Data Type
    ,                        !- Window Glass Spectral Data Set Name
    0.010,                   !- Thickness {m}
    0.326,                   !- Solar Transmittance at Normal Incidence
    0.048,                   !- Front Side Solar Reflectance at Normal Incidence
    0.048,                   !- Back Side Solar Reflectance at Normal Incidence
    0.379,                   !- Visible Transmittance at Normal Incidence
    0.050,                   !- Front Side Visible Reflectance at Normal Incidence
    0.050,                   !- Back Side Visible Reflectance at Normal Incidence
    0.0,                     !- Infrared Transmittance at Normal Incidence
    0.84,                    !- Front Side Infrared Hemispherical Emissivity
    0.84,                    !- Back Side Infrared Hemispherical Emissivity
    0.9;                     !- Conductivity {W/m-K}

WindowMaterial:Glazing,
    GREY 3MM,                !- Name
    SpectralAverage,         !- Optical Data Type
    ,                        !- Window Glass Spectral Data Set Name
    0.003,                   !- Thickness {m}
    0.626,                   !- Solar Transmittance at Normal Incidence
    0.061,                   !- Front Side Solar Reflectance at Normal Incidence
    0.061,                   !- Back Side Solar Reflectance at Normal Incidence
    0.611,                   !- Visible Transmittance at Normal Incidence
    0.061,                   !- Front Side Visible Reflectance at Normal Incidence
    0.061,                   !- Back Side Visible Reflectance at Normal Incidence
    0.0,                     !- Infrared Transmittance at Normal Incidence
    0.84,                    !- Front Side Infrared Hemispherical Emissivity
    0.84,                    !- Back Side Infrared Hemispherical Emissivity
    0.9;                     !- Conductivity {W/m-K}

WindowMaterial:Glazing,
    GREY 6MM,                !- Name
    SpectralAverage,         !- Optical Data Type
    ,                        !- Window Glass Spectral Data Set Name
    0.006,                   !- Thickness {m}
    0.455,                   !- Solar Transmittance at Normal Incidence
    0.053,                   !- Front Side Solar Reflectance at Normal Incidence
    0.053,                   !- Back Side Solar Reflectance at Normal Incidence
    0.431,                   !- Visible Transmittance at Normal Incidence
    0.052,                   !- Front Side Visible Reflectance at Normal Incidence
    0.052,                   !- Back Side Visible Reflectance at Normal Incidence
    0.0,                     !- Infrared Transmittance at Normal Incidence
    0.84,                    !- Front Side Infrared Hemispherical Emissivity
    0.84,                    !- Back Side Infrared Hemispherical Emissivity
    0.9;                     !- Conductivity {W/m-K}

WindowMaterial:Glazing,
    GREY 12MM,               !- Name
    SpectralAverage,         !- Optical Data Type
    ,                        !- Window Glass Spectral Data Set Name
    0.012,                   !- Thickness {m}
    0.217,                   !- Solar Transmittance at Normal Incidence
    0.044,                   !- Front Side Solar Reflectance at Normal Incidence
    0.044,                   !- Back Side Solar Reflectance at Normal Incidence
    0.187,                   !- Visible Transmittance at Normal Incidence
    0.045,                   !- Front Side Visible Reflectance at Normal Incidence
    0.045,                   !- Back Side Visible Reflectance at Normal Incidence
    0.0,                     !- Infrared Transmittance at Normal Incidence
    0.84,                    !- Front Side Infrared Hemispherical Emissivity
    0.84,                    !- Back Side Infrared Hemispherical Emissivity
    0.9;                     !- Conductivity {W/m-K}

WindowMaterial:Glazing,
    GREEN 3MM,               !- Name
    SpectralAverage,         !- Optical Data Type
    ,                        !- Window Glass Spectral Data Set Name
    0.003,                   !- Thickness {m}
    0.635,                   !- Solar Transmittance at Normal Incidence
    0.063,                   !- Front Side Solar Reflectance at Normal Incidence
    0.063,                   !- Back Side Solar Reflectance at Normal Incidence
    0.822,                   !- Visible Transmittance at Normal Incidence
    0.075,                   !- Front Side Visible Reflectance at Normal Incidence
    0.075,                   !- Back Side Visible Reflectance at Normal Incidence
    0.0,                     !- Infrared Transmittance at Normal Incidence
    0.84,                    !- Front Side Infrared Hemispherical Emissivity
    0.84,                    !- Back Side Infrared Hemispherical Emissivity
    0.9;                     !- Conductivity {W/m-K}

WindowMaterial:Glazing,
    GREEN 6MM,               !- Name
    SpectralAverage,         !- Optical Data Type
    ,                        !- Window Glass Spectral Data Set Name
    0.006,                   !- Thickness {m}
    0.487,                   !- Solar Transmittance at Normal Incidence
    0.056,                   !- Front Side Solar Reflectance at Normal Incidence
    0.056,                   !- Back Side Solar Reflectance at Normal Incidence
    0.749,                   !- Visible Transmittance at Normal Incidence
    0.070,                   !- Front Side Visible Reflectance at Normal Incidence
    0.070,                   !- Back Side Visible Reflectance at Normal Incidence
    0.0,                     !- Infrared Transmittance at Normal Incidence
    0.84,                    !- Front Side Infrared Hemispherical Emissivity
    0.84,                    !- Back Side Infrared Hemispherical Emissivity
    0.9;                     !- Conductivity {W/m-K}

WindowMaterial:Glazing,
    LOW IRON 2.5MM,          !- Name
    SpectralAverage,         !- Optical Data Type
    ,                        !- Window Glass Spectral Data Set Name
    0.0025,                  !- Thickness {m}
    0.904,                   !- Solar Transmittance at Normal Incidence
    0.080,                   !- Front Side Solar Reflectance at Normal Incidence
    0.080,                   !- Back Side Solar Reflectance at Normal Incidence
    0.914,                   !- Visible Transmittance at Normal Incidence
    0.083,                   !- Front Side Visible Reflectance at Normal Incidence
    0.083,                   !- Back Side Visible Reflectance at Normal Incidence
    0.0,                     !- Infrared Transmittance at Normal Incidence
    0.84,                    !- Front Side Infrared Hemispherical Emissivity
    0.84,                    !- Back Side Infrared Hemispherical Emissivity
    0.9;                     !- Conductivity {W/m-K}

WindowMaterial:Glazing,
    LOW IRON 3MM,            !- Name
    SpectralAverage,         !- Optical Data Type
    ,                        !- Window Glass Spectral Data Set Name
    0.003,                   !- Thickness {m}
    0.899,                   !- Solar Transmittance at Normal Incidence
    0.079,                   !- Front Side Solar Reflectance at Normal Incidence
    0.079,                   !- Back Side Solar Reflectance at Normal Incidence
    0.913,                   !- Visible Transmittance at Normal Incidence
    0.082,                   !- Front Side Visible Reflectance at Normal Incidence
    0.082,                   !- Back Side Visible Reflectance at Normal Incidence
    0.0,                     !- Infrared Transmittance at Normal Incidence
    0.84,                    !- Front Side Infrared Hemispherical Emissivity
    0.84,                    !- Back Side Infrared Hemispherical Emissivity
    0.9;                     !- Conductivity {W/m-K}

WindowMaterial:Glazing,
    LOW IRON 4MM,            !- Name
    SpectralAverage,         !- Optical Data Type
    ,                        !- Window Glass Spectral Data Set Name
    0.004,                   !- Thickness {m}
    0.894,                   !- Solar Transmittance at Normal Incidence
    0.079,                   !- Front Side Solar Reflectance at Normal Incidence
    0.079,                   !- Back Side Solar Reflectance at Normal Incidence
    0.911,                   !- Visible Transmittance at Normal Incidence
    0.082,                   !- Front Side Visible Reflectance at Normal Incidence
    0.082,                   !- Back Side Visible Reflectance at Normal Incidence
    0.0,                     !- Infrared Transmittance at Normal Incidence
    0.84,                    !- Front Side Infrared Hemispherical Emissivity
    0.84,                    !- Back Side Infrared Hemispherical Emissivity
    0.9;                     !- Conductivity {W/m-K}

WindowMaterial:Glazing,
    LOW IRON 5MM,            !- Name
    SpectralAverage,         !- Optical Data Type
    ,                        !- Window Glass Spectral Data Set Name
    0.005,                   !- Thickness {m}
    0.889,                   !- Solar Transmittance at Normal Incidence
    0.079,                   !- Front Side Solar Reflectance at Normal Incidence
    0.079,                   !- Back Side Solar Reflectance at Normal Incidence
    0.910,                   !- Visible Transmittance at Normal Incidence
    0.082,                   !- Front Side Visible Reflectance at Normal Incidence
    0.082,                   !- Back Side Visible Reflectance at Normal Incidence
    0.0,                     !- Infrared Transmittance at Normal Incidence
    0.84,                    !- Front Side Infrared Hemispherical Emissivity
    0.84,                    !- Back Side Infrared Hemispherical Emissivity
    0.9;                     !- Conductivity {W/m-K}

WindowMaterial:Glazing,
    BLUE 6MM,                !- Name
    SpectralAverage,         !- Optical Data Type
    ,                        !- Window Glass Spectral Data Set Name
    0.006,                   !- Thickness {m}
    0.480,                   !- Solar Transmittance at Normal Incidence
    0.050,                   !- Front Side Solar Reflectance at Normal Incidence
    0.050,                   !- Back Side Solar Reflectance at Normal Incidence
    0.570,                   !- Visible Transmittance at Normal Incidence
    0.060,                   !- Front Side Visible Reflectance at Normal Incidence
    0.060,                   !- Back Side Visible Reflectance at Normal Incidence
    0.0,                     !- Infrared Transmittance at Normal Incidence
    0.84,                    !- Front Side Infrared Hemispherical Emissivity
    0.84,                    !- Back Side Infrared Hemispherical Emissivity
    0.9;                     !- Conductivity {W/m-K}

WindowMaterial:Glazing,
    REF A CLEAR LO 6MM,      !- Name
    SpectralAverage,         !- Optical Data Type
    ,                        !- Window Glass Spectral Data Set Name
    0.006,                   !- Thickness {m}
    0.066,                   !- Solar Transmittance at Normal Incidence
    0.341,                   !- Front Side Solar Reflectance at Normal Incidence
    0.493,                   !- Back Side Solar Reflectance at Normal Incidence
    0.080,                   !- Visible Transmittance at Normal Incidence
    0.410,                   !- Front Side Visible Reflectance at Normal Incidence
    0.370,                   !- Back Side Visible Reflectance at Normal Incidence
    0.0,                     !- Infrared Transmittance at Normal Incidence
    0.84,                    !- Front Side Infrared Hemispherical Emissivity
    0.40,                    !- Back Side Infrared Hemispherical Emissivity
    0.9;                     !- Conductivity {W/m-K}

WindowMaterial:Glazing,
    REF A CLEAR MID 6MM,     !- Name
    SpectralAverage,         !- Optical Data Type
    ,                        !- Window Glass Spectral Data Set Name
    0.006,                   !- Thickness {m}
    0.110,                   !- Solar Transmittance at Normal Incidence
    0.270,                   !- Front Side Solar Reflectance at Normal Incidence
    0.430,                   !- Back Side Solar Reflectance at Normal Incidence
    0.140,                   !- Visible Transmittance at Normal Incidence
    0.310,                   !- Front Side Visible Reflectance at Normal Incidence
    0.350,                   !- Back Side Visible Reflectance at Normal Incidence
    0.0,                     !- Infrared Transmittance at Normal Incidence
    0.84,                    !- Front Side Infrared Hemispherical Emissivity
    0.47,                    !- Back Side Infrared Hemispherical Emissivity
    0.9;                     !- Conductivity {W/m-K}

WindowMaterial:Glazing,
    REF A CLEAR HI 6MM,      !- Name
    SpectralAverage,         !- Optical Data Type
    ,                        !- Window Glass Spectral Data Set Name
    0.006,                   !- Thickness {m}
    0.159,                   !- Solar Transmittance at Normal Incidence
    0.220,                   !- Front Side Solar Reflectance at Normal Incidence
    0.370,                   !- Back Side Solar Reflectance at Normal Incidence
    0.200,                   !- Visible Transmittance at Normal Incidence
    0.250,                   !- Front Side Visible Reflectance at Normal Incidence
    0.320,                   !- Back Side Visible Reflectance at Normal Incidence
    0.0,                     !- Infrared Transmittance at Normal Incidence
    0.84,                    !- Front Side Infrared Hemispherical Emissivity
    0.57,                    !- Back Side Infrared Hemispherical Emissivity
    0.9;                     !- Conductivity {W/m-K}

WindowMaterial:Glazing,
    REF A TINT LO 6MM,       !- Name
    SpectralAverage,         !- Optical Data Type
    ,                        !- Window Glass Spectral Data Set Name
    0.006,                   !- Thickness {m}
    0.040,                   !- Solar Transmittance at Normal Incidence
    0.150,                   !- Front Side Solar Reflectance at Normal Incidence
    0.470,                   !- Back Side Solar Reflectance at Normal Incidence
    0.050,                   !- Visible Transmittance at Normal Incidence
    0.170,                   !- Front Side Visible Reflectance at Normal Incidence
    0.370,                   !- Back Side Visible Reflectance at Normal Incidence
    0.0,                     !- Infrared Transmittance at Normal Incidence
    0.84,                    !- Front Side Infrared Hemispherical Emissivity
    0.41,                    !- Back Side Infrared Hemispherical Emissivity
    0.9;                     !- Conductivity {W/m-K}

WindowMaterial:Glazing,
    REF A TINT MID 6MM,      !- Name
    SpectralAverage,         !- Optical Data Type
    ,                        !- Window Glass Spectral Data Set Name
    0.006,                   !- Thickness {m}
    0.060,                   !- Solar Transmittance at Normal Incidence
    0.130,                   !- Front Side Solar Reflectance at Normal Incidence
    0.420,                   !- Back Side Solar Reflectance at Normal Incidence
    0.090,                   !- Visible Transmittance at Normal Incidence
    0.140,                   !- Front Side Visible Reflectance at Normal Incidence
    0.350,                   !- Back Side Visible Reflectance at Normal Incidence
    0.0,                     !- Infrared Transmittance at Normal Incidence
    0.84,                    !- Front Side Infrared Hemispherical Emissivity
    0.47,                    !- Back Side Infrared Hemispherical Emissivity
    0.9;                     !- Conductivity {W/m-K}

WindowMaterial:Glazing,
    REF A TINT HI 6MM,       !- Name
    SpectralAverage,         !- Optical Data Type
    ,                        !- Window Glass Spectral Data Set Name
    0.006,                   !- Thickness {m}
    0.100,                   !- Solar Transmittance at Normal Incidence
    0.110,                   !- Front Side Solar Reflectance at Normal Incidence
    0.380,                   !- Back Side Solar Reflectance at Normal Incidence
    0.100,                   !- Visible Transmittance at Normal Incidence
    0.110,                   !- Front Side Visible Reflectance at Normal Incidence
    0.320,                   !- Back Side Visible Reflectance at Normal Incidence
    0.0,                     !- Infrared Transmittance at Normal Incidence
    0.84,                    !- Front Side Infrared Hemispherical Emissivity
    0.53,                    !- Back Side Infrared Hemispherical Emissivity
    0.9;                     !- Conductivity {W/m-K}

WindowMaterial:Glazing,
    REF B CLEAR LO 6MM,      !- Name
    SpectralAverage,         !- Optical Data Type
    ,                        !- Window Glass Spectral Data Set Name
    0.006,                   !- Thickness {m}
    0.150,                   !- Solar Transmittance at Normal Incidence
    0.220,                   !- Front Side Solar Reflectance at Normal Incidence
    0.380,                   !- Back Side Solar Reflectance at Normal Incidence
    0.200,                   !- Visible Transmittance at Normal Incidence
    0.230,                   !- Front Side Visible Reflectance at Normal Incidence
    0.330,                   !- Back Side Visible Reflectance at Normal Incidence
    0.0,                     !- Infrared Transmittance at Normal Incidence
    0.84,                    !- Front Side Infrared Hemispherical Emissivity
    0.58,                    !- Back Side Infrared Hemispherical Emissivity
    0.9;                     !- Conductivity {W/m-K}

WindowMaterial:Glazing,
    REF B CLEAR HI 6MM,      !- Name
    SpectralAverage,         !- Optical Data Type
    ,                        !- Window Glass Spectral Data Set Name
    0.006,                   !- Thickness {m}
    0.240,                   !- Solar Transmittance at Normal Incidence
    0.160,                   !- Front Side Solar Reflectance at Normal Incidence
    0.320,                   !- Back Side Solar Reflectance at Normal Incidence
    0.300,                   !- Visible Transmittance at Normal Incidence
    0.160,                   !- Front Side Visible Reflectance at Normal Incidence
    0.290,                   !- Back Side Visible Reflectance at Normal Incidence
    0.0,                     !- Infrared Transmittance at Normal Incidence
    0.84,                    !- Front Side Infrared Hemispherical Emissivity
    0.60,                    !- Back Side Infrared Hemispherical Emissivity
    0.9;                     !- Conductivity {W/m-K}

WindowMaterial:Glazing,
    REF B TINT LO 6MM,       !- Name
    SpectralAverage,         !- Optical Data Type
    ,                        !- Window Glass Spectral Data Set Name
    0.006,                   !- Thickness {m}
    0.040,                   !- Solar Transmittance at Normal Incidence
    0.130,                   !- Front Side Solar Reflectance at Normal Incidence
    0.420,                   !- Back Side Solar Reflectance at Normal Incidence
    0.050,                   !- Visible Transmittance at Normal Incidence
    0.090,                   !- Front Side Visible Reflectance at Normal Incidence
    0.280,                   !- Back Side Visible Reflectance at Normal Incidence
    0.0,                     !- Infrared Transmittance at Normal Incidence
    0.84,                    !- Front Side Infrared Hemispherical Emissivity
    0.41,                    !- Back Side Infrared Hemispherical Emissivity
    0.9;                     !- Conductivity {W/m-K}

WindowMaterial:Glazing,
    REF B TINT MID 6MM,      !- Name
    SpectralAverage,         !- Optical Data Type
    ,                        !- Window Glass Spectral Data Set Name
    0.006,                   !- Thickness {m}
    0.100,                   !- Solar Transmittance at Normal Incidence
    0.110,                   !- Front Side Solar Reflectance at Normal Incidence
    0.410,                   !- Back Side Solar Reflectance at Normal Incidence
    0.130,                   !- Visible Transmittance at Normal Incidence
    0.100,                   !- Front Side Visible Reflectance at Normal Incidence
    0.320,                   !- Back Side Visible Reflectance at Normal Incidence
    0.0,                     !- Infrared Transmittance at Normal Incidence
    0.84,                    !- Front Side Infrared Hemispherical Emissivity
    0.45,                    !- Back Side Infrared Hemispherical Emissivity
    0.9;                     !- Conductivity {W/m-K}

WindowMaterial:Glazing,
    REF B TINT HI 6MM,       !- Name
    SpectralAverage,         !- Optical Data Type
    ,                        !- Window Glass Spectral Data Set Name
    0.006,                   !- Thickness {m}
    0.150,                   !- Solar Transmittance at Normal Incidence
    0.090,                   !- Front Side Solar Reflectance at Normal Incidence
    0.330,                   !- Back Side Solar Reflectance at Normal Incidence
    0.180,                   !- Visible Transmittance at Normal Incidence
    0.080,                   !- Front Side Visible Reflectance at Normal Incidence
    0.280,                   !- Back Side Visible Reflectance at Normal Incidence
    0.0,                     !- Infrared Transmittance at Normal Incidence
    0.84,                    !- Front Side Infrared Hemispherical Emissivity
    0.60,                    !- Back Side Infrared Hemispherical Emissivity
    0.9;                     !- Conductivity {W/m-K}

WindowMaterial:Glazing,
    REF C CLEAR LO 6MM,      !- Name
    SpectralAverage,         !- Optical Data Type
    ,                        !- Window Glass Spectral Data Set Name
    0.006,                   !- Thickness {m}
    0.110,                   !- Solar Transmittance at Normal Incidence
    0.250,                   !- Front Side Solar Reflectance at Normal Incidence
    0.490,                   !- Back Side Solar Reflectance at Normal Incidence
    0.130,                   !- Visible Transmittance at Normal Incidence
    0.280,                   !- Front Side Visible Reflectance at Normal Incidence
    0.420,                   !- Back Side Visible Reflectance at Normal Incidence
    0.0,                     !- Infrared Transmittance at Normal Incidence
    0.84,                    !- Front Side Infrared Hemispherical Emissivity
    0.43,                    !- Back Side Infrared Hemispherical Emissivity
    0.9;                     !- Conductivity {W/m-K}

WindowMaterial:Glazing,
    REF C CLEAR MID 6MM,     !- Name
    SpectralAverage,         !- Optical Data Type
    ,                        !- Window Glass Spectral Data Set Name
    0.006,                   !- Thickness {m}
    0.170,                   !- Solar Transmittance at Normal Incidence
    0.200,                   !- Front Side Solar Reflectance at Normal Incidence
    0.420,                   !- Back Side Solar Reflectance at Normal Incidence
    0.190,                   !- Visible Transmittance at Normal Incidence
    0.210,                   !- Front Side Visible Reflectance at Normal Incidence
    0.380,                   !- Back Side Visible Reflectance at Normal Incidence
    0.0,                     !- Infrared Transmittance at Normal Incidence
    0.84,                    !- Front Side Infrared Hemispherical Emissivity
    0.51,                    !- Back Side Infrared Hemispherical Emissivity
    0.9;                     !- Conductivity {W/m-K}

WindowMaterial:Glazing,
    REF C CLEAR HI 6MM,      !- Name
    SpectralAverage,         !- Optical Data Type
    ,                        !- Window Glass Spectral Data Set Name
    0.006,                   !- Thickness {m}